Version 4
SHEET 1 4136 1380
WIRE 240 -576 224 -576
WIRE 224 -512 224 -576
WIRE 224 -208 224 -432
WIRE 224 -160 -64 -160
WIRE 432 -128 272 -128
WIRE 992 -128 432 -128
WIRE 1088 -128 992 -128
WIRE 1424 -128 1168 -128
WIRE 224 80 224 -112
WIRE 384 80 224 80
WIRE 608 80 464 80
WIRE -112 128 -688 128
WIRE 976 160 864 160
WIRE 1072 160 1056 160
WIRE 1168 160 1072 160
WIRE -688 192 -688 128
WIRE 3024 192 2864 192
WIRE 224 240 224 80
WIRE 400 240 224 240
WIRE 496 240 464 240
WIRE 608 240 608 80
WIRE 608 240 576 240
WIRE 1136 240 1120 240
WIRE 2016 240 1984 240
WIRE 2864 240 2864 192
WIRE 3024 240 3024 192
WIRE 3088 240 3024 240
WIRE 3248 240 3168 240
WIRE 3280 240 3248 240
WIRE 3456 240 3360 240
WIRE 1984 256 1984 240
WIRE 1072 272 1072 160
WIRE 1072 272 1024 272
WIRE -688 304 -688 272
WIRE 384 304 368 304
WIRE 1024 304 1024 272
WIRE 2016 304 2016 240
WIRE 1120 320 1120 240
WIRE 1728 320 1408 320
WIRE 3344 320 3328 320
WIRE 368 352 368 304
WIRE 1072 352 1072 272
WIRE 1088 352 1072 352
WIRE 1408 352 1408 320
WIRE 1408 352 1168 352
WIRE 1424 352 1408 352
WIRE 1728 352 1728 320
WIRE 1936 352 1728 352
WIRE 2384 352 2096 352
WIRE 3328 352 3328 320
WIRE -112 368 -112 128
WIRE 0 368 -112 368
WIRE 224 368 224 240
WIRE 224 368 80 368
WIRE 336 368 224 368
WIRE 3248 368 3248 240
WIRE 3312 368 3248 368
WIRE -400 384 -400 368
WIRE 608 384 608 240
WIRE 608 384 400 384
WIRE 640 384 608 384
WIRE 720 384 640 384
WIRE 1088 384 800 384
WIRE 1376 384 1376 160
WIRE 1376 384 1168 384
WIRE 1424 384 1376 384
WIRE 3376 384 3360 384
WIRE 3456 384 3456 240
WIRE 3456 384 3376 384
WIRE 3488 384 3456 384
WIRE 336 400 272 400
WIRE 1424 400 1344 400
WIRE 1936 400 1728 400
WIRE 2384 400 2384 352
WIRE 2432 400 2384 400
WIRE 3088 400 2496 400
WIRE 3248 400 3168 400
WIRE 3312 400 3248 400
WIRE 272 432 272 400
WIRE 2432 432 2384 432
WIRE -1504 448 -1504 416
WIRE -1344 448 -1344 416
WIRE -1184 448 -1184 416
WIRE -1072 448 -1072 416
WIRE -960 448 -960 416
WIRE 3248 448 3248 400
WIRE 368 464 368 416
WIRE 384 464 368 464
WIRE 1136 464 1136 416
WIRE 1344 464 1296 464
WIRE 2016 464 2016 448
WIRE -400 496 -400 464
WIRE 1120 496 1120 416
WIRE 1296 496 1296 464
WIRE 1296 496 1120 496
WIRE 1344 496 1344 464
WIRE 3328 496 3328 416
WIRE 3344 496 3328 496
WIRE 1728 512 1728 400
WIRE 2384 512 2384 432
WIRE 2384 512 1728 512
WIRE 1728 528 1728 512
WIRE 1104 544 1104 416
WIRE 1136 544 1104 544
WIRE 3248 544 3248 528
WIRE -1504 560 -1504 528
WIRE -1344 560 -1344 528
WIRE -1344 560 -1504 560
WIRE -1184 560 -1184 528
WIRE -1184 560 -1344 560
WIRE -1072 560 -1072 528
WIRE -1072 560 -1184 560
WIRE -960 560 -960 528
WIRE -960 560 -1072 560
WIRE -1072 576 -1072 560
WIRE 1424 576 1424 400
WIRE 1424 576 1344 576
WIRE 1728 640 1728 608
WIRE -1120 816 -1120 784
WIRE -960 816 -960 784
WIRE -1120 928 -1120 896
WIRE -960 928 -960 896
WIRE -960 928 -1120 928
FLAG -1072 576 0
FLAG -1184 416 VDD
IOPIN -1184 416 BiDir
FLAG -1072 416 Vref
IOPIN -1072 416 BiDir
FLAG -960 416 Vbb
IOPIN -960 416 BiDir
FLAG 272 512 Vref
IOPIN 272 512 BiDir
FLAG 384 304 VDD
IOPIN 384 304 BiDir
FLAG 224 240 CAP-in
FLAG 1136 240 VDD
IOPIN 1136 240 BiDir
FLAG 864 160 Vbb
IOPIN 864 160 BiDir
FLAG 1424 -128 RST
IOPIN 1424 -128 BiDir
FLAG -1344 416 VSS
IOPIN -1344 416 BiDir
FLAG 384 464 VSS
IOPIN 384 464 BiDir
FLAG 1136 544 VSS
IOPIN 1136 544 BiDir
FLAG -1504 416 VBody
IOPIN -1504 416 BiDir
FLAG -64 -160 VBody
IOPIN -64 -160 BiDir
FLAG -960 784 VO_N
IOPIN -960 784 BiDir
FLAG -1120 784 VO_P
IOPIN -1120 784 BiDir
FLAG 3344 496 VO_N
IOPIN 3344 496 BiDir
FLAG 3344 320 VO_P
IOPIN 3344 320 BiDir
FLAG 3248 544 0
FLAG -960 928 0
FLAG 1136 464 0
FLAG 2864 320 0
FLAG 1424 352 com_o
IOPIN 1424 352 BiDir
FLAG 1424 384 com_o_b
IOPIN 1424 384 BiDir
FLAG 1344 576 0
FLAG 3488 384 RST
IOPIN 3488 384 BiDir
FLAG 992 -48 0
FLAG 640 384 out
FLAG 432 -128 Gate
FLAG 240 -576 VO_P
IOPIN 240 -576 BiDir
FLAG -688 304 0
FLAG 2016 464 0
FLAG 1984 256 0
FLAG 1728 640 0
FLAG 1024 304 0
FLAG -400 496 0
SYMBOL voltage -1184 432 R0
SYMATTR InstName V1
SYMATTR Value 2.5
SYMBOL voltage -1072 432 R0
SYMATTR InstName V2
SYMATTR Value 0
SYMBOL voltage -960 432 R0
WINDOW 123 0 0 Left 0
WINDOW 39 0 0 Left 0
SYMATTR InstName V3
SYMATTR Value 0.024
SYMBOL Res 256 416 R0
SYMATTR InstName R2
SYMATTR Value 1k
SYMBOL Cap 464 224 R90
WINDOW 0 0 32 VBottom 2
WINDOW 3 32 32 VTop 2
SYMATTR InstName C1
SYMATTR Value 0.078p
SYMBOL opamp2 368 320 R0
SYMATTR InstName U1
SYMATTR Value LMP7721
SYMBOL Res 240 -416 R180
WINDOW 0 36 76 Left 2
WINDOW 3 36 40 Left 2
SYMATTR InstName R6
SYMATTR Value 1k
SYMBOL nmos4 272 -208 M0
WINDOW 123 -21 67 VLeft 2
SYMATTR Value2 W=1u L=10u
SYMATTR InstName M2
SYMATTR Value NM
SYMATTR Prefix X
SYMBOL voltage -1344 432 R0
SYMATTR InstName V4
SYMATTR Value -2.5
SYMBOL voltage -1504 432 R0
SYMATTR InstName V5
SYMATTR Value -0.36
SYMBOL voltage -960 800 R0
WINDOW 123 0 0 Left 0
WINDOW 39 0 0 Left 0
SYMATTR InstName V6
SYMATTR Value -1.8
SYMBOL voltage -1120 800 R0
SYMATTR InstName V7
SYMATTR Value 1.8
SYMBOL Res 3184 224 R90
WINDOW 0 0 56 VBottom 2
WINDOW 3 32 56 VTop 2
SYMATTR InstName R7
SYMATTR Value 1k
SYMBOL Res 3184 384 R90
WINDOW 0 0 56 VBottom 2
WINDOW 3 32 56 VTop 2
SYMATTR InstName R8
SYMATTR Value 1k
SYMBOL Res 3376 224 R90
WINDOW 0 0 56 VBottom 2
WINDOW 3 32 56 VTop 2
SYMATTR InstName R13
SYMATTR Value 1k
SYMBOL Res 3264 544 R180
WINDOW 0 36 76 Left 2
WINDOW 3 36 40 Left 2
SYMATTR InstName R14
SYMATTR Value 300
SYMBOL voltage 2864 224 R0
WINDOW 123 0 0 Left 0
WINDOW 39 0 0 Left 0
SYMATTR InstName V8
SYMATTR Value 0.466
SYMBOL OpAmps\\AD8041 3344 384 R0
SYMATTR InstName U2
SYMBOL Res 1360 592 R180
WINDOW 0 36 76 Left 2
WINDOW 3 36 40 Left 2
SYMATTR InstName R19
SYMATTR Value 1k
SYMBOL Cap 1360 464 R180
WINDOW 0 24 56 Left 2
WINDOW 3 24 8 Left 2
SYMATTR InstName C2
SYMATTR Value 270p
SYMBOL Res 1008 -32 R180
WINDOW 0 36 76 Left 2
WINDOW 3 36 40 Left 2
SYMATTR InstName R1
SYMATTR Value 1k
SYMBOL Res 592 224 R90
WINDOW 0 0 56 VBottom 2
WINDOW 3 32 56 VTop 2
SYMATTR InstName R11
SYMATTR Value 1
SYMBOL Res 1152 176 R270
WINDOW 0 32 56 VTop 2
WINDOW 3 0 56 VBottom 2
SYMATTR InstName R16
SYMATTR Value 203k
SYMBOL Res 960 176 R270
WINDOW 0 32 56 VTop 2
WINDOW 3 0 56 VBottom 2
SYMATTR InstName R17
SYMATTR Value 402
SYMBOL Res 1184 -144 R90
WINDOW 0 0 56 VBottom 2
WINDOW 3 32 56 VTop 2
SYMATTR InstName R18
SYMATTR Value 1
SYMBOL Comparators\\LT1711 1120 368 R0
SYMATTR InstName U4
SYMBOL Res 96 352 R90
WINDOW 0 0 56 VBottom 2
WINDOW 3 32 56 VTop 2
SYMATTR InstName R20
SYMATTR Value 1G
SYMBOL Res 816 368 R90
WINDOW 0 0 56 VBottom 2
WINDOW 3 32 56 VTop 2
SYMATTR InstName R4
SYMATTR Value 1k
SYMBOL voltage -688 176 R0
WINDOW 123 0 0 Left 0
WINDOW 39 0 0 Left 0
WINDOW 3 -71 101 Left 2
SYMATTR Value PWL file=PWLdata.csv
SYMATTR InstName V9
SYMBOL Digital\\dflop 2016 304 R0
WINDOW 3 -112 191 Left 2
SYMATTR Value Vhigh=1.8 Vlow=0 Trise=1n Tfall=1n
SYMATTR InstName A1
SYMBOL voltage 1728 512 R0
WINDOW 123 0 0 Left 0
WINDOW 39 0 0 Left 0
WINDOW 3 -71 101 Left 2
SYMATTR Value PULSE(0 1.8 1u 10n 10n 300n 600n 10000)
SYMATTR InstName V10
SYMBOL Digital\\and 2464 352 R0
WINDOW 3 -35 -11 Left 2
SYMATTR Value Vhigh=1.8 Vlow=0 Ref=0.8
SYMATTR InstName A2
SYMBOL Res 480 64 R90
WINDOW 0 0 56 VBottom 2
WINDOW 3 32 56 VTop 2
SYMATTR InstName R5
SYMATTR Value 11G
SYMBOL voltage -400 368 R0
WINDOW 123 0 0 Left 0
WINDOW 39 0 0 Left 0
WINDOW 3 -71 101 Left 2
SYMATTR Value PULSE(0 -0.5 100u 10n 10n 30 31 1)
SYMATTR InstName V11
TEXT -1264 112 Left 2 !.lib LMP7721.LIB\n.param sn=0 sp=0\n.lib BSIM3_180.LIB
TEXT -1264 200 Left 2 !.tran 0 1m 0u
