Version 4
SHEET 1 3280 1380
WIRE -2208 -432 -2208 -480
WIRE -1184 -432 -1184 -480
WIRE -864 -432 -864 -480
WIRE -2208 -320 -2208 -352
WIRE -1184 -320 -1184 -352
WIRE -864 -320 -864 -352
WIRE 544 -176 432 -176
WIRE 688 -176 624 -176
WIRE 528 -112 480 -112
WIRE -2224 -80 -2224 -128
WIRE -1696 -80 -1696 -128
WIRE 432 -64 432 -176
WIRE 480 -64 480 -112
WIRE 528 -64 528 -112
WIRE 416 -16 272 -16
WIRE 560 -16 496 -16
WIRE 720 -16 640 -16
WIRE -2224 32 -2224 0
WIRE -1696 32 -1696 0
WIRE 2000 192 1936 192
WIRE 2160 192 2080 192
WIRE 2192 192 2160 192
WIRE 2368 192 2272 192
WIRE 1936 208 1936 192
WIRE 272 240 272 -16
WIRE 272 240 224 240
WIRE 400 240 272 240
WIRE 720 240 720 -16
WIRE 720 240 464 240
WIRE 1136 240 1120 240
WIRE 2256 272 2240 272
WIRE 576 304 544 304
WIRE 2240 304 2240 272
WIRE 1056 320 1024 320
WIRE 1120 320 1120 240
WIRE 2160 320 2160 192
WIRE 2224 320 2160 320
WIRE 1120 336 1120 320
WIRE 2288 336 2272 336
WIRE 2368 336 2368 192
WIRE 2368 336 2288 336
WIRE 2400 336 2368 336
WIRE 544 352 544 304
WIRE 1056 352 1056 320
WIRE 1088 352 1056 352
WIRE 1344 352 1168 352
WIRE 1424 352 1344 352
WIRE 2000 352 1920 352
WIRE 2160 352 2080 352
WIRE 2224 352 2160 352
WIRE 80 368 -16 368
WIRE 128 368 80 368
WIRE 224 368 224 240
WIRE 224 368 208 368
WIRE 256 368 224 368
WIRE 400 368 336 368
WIRE 512 368 400 368
WIRE 720 384 720 240
WIRE 720 384 576 384
WIRE 1088 384 720 384
WIRE 1392 384 1168 384
WIRE 1424 384 1392 384
WIRE 512 400 448 400
WIRE 2160 400 2160 352
WIRE 1344 416 1344 352
WIRE 448 432 448 400
WIRE 80 448 80 368
WIRE 400 448 400 368
WIRE 400 448 352 448
WIRE 2240 448 2240 368
WIRE 2256 448 2240 448
WIRE 1136 464 1136 416
WIRE 1056 480 1056 352
WIRE -16 496 -16 368
WIRE 1120 496 1120 416
WIRE 1344 496 1344 480
WIRE 1344 496 1120 496
WIRE 2160 496 2160 480
WIRE 352 512 352 448
WIRE 544 512 544 416
WIRE 576 512 544 512
WIRE 1344 512 1344 496
WIRE 1104 544 1104 416
WIRE 1136 544 1104 544
WIRE 448 560 448 512
WIRE 352 592 352 576
WIRE -16 608 -16 576
WIRE 32 608 -16 608
WIRE 80 608 80 528
WIRE 80 608 32 608
WIRE 32 624 32 608
WIRE 1056 624 1056 560
WIRE 1392 624 1392 384
WIRE 1392 624 1056 624
WIRE 2000 624 1936 624
WIRE 2160 624 2080 624
WIRE 2192 624 2160 624
WIRE 2368 624 2272 624
WIRE 1936 640 1936 624
WIRE 1344 688 1344 592
WIRE 2256 704 2240 704
WIRE 2240 736 2240 704
WIRE 2160 752 2160 624
WIRE 2224 752 2160 752
WIRE 2288 768 2272 768
WIRE 2368 768 2368 624
WIRE 2368 768 2288 768
WIRE 2400 768 2368 768
WIRE 2000 784 1920 784
WIRE 2160 784 2080 784
WIRE 2224 784 2160 784
WIRE 2160 832 2160 784
WIRE 2240 880 2240 800
WIRE 2256 880 2240 880
WIRE 2160 928 2160 912
WIRE 432 960 432 928
WIRE 592 960 592 928
WIRE 752 960 752 928
WIRE 864 960 864 928
WIRE 976 960 976 928
WIRE 1376 960 1376 928
WIRE 1536 960 1536 928
WIRE 432 1072 432 1040
WIRE 592 1072 592 1040
WIRE 592 1072 432 1072
WIRE 752 1072 752 1040
WIRE 752 1072 592 1072
WIRE 864 1072 864 1040
WIRE 864 1072 752 1072
WIRE 976 1072 976 1040
WIRE 976 1072 864 1072
WIRE 1376 1072 1376 1040
WIRE 1536 1072 1536 1040
WIRE 1536 1072 1376 1072
WIRE 864 1088 864 1072
FLAG 864 1088 0
FLAG 752 928 VDD
IOPIN 752 928 BiDir
FLAG 864 928 Vref
IOPIN 864 928 BiDir
FLAG 976 928 Vbb
IOPIN 976 928 BiDir
FLAG 448 560 Vref
IOPIN 448 560 BiDir
FLAG 576 304 VDD
IOPIN 576 304 BiDir
FLAG 224 240 CAP-in
FLAG 720 240 CAP-out
FLAG 1136 240 VDD
IOPIN 1136 240 BiDir
FLAG 944 320 Vbb
IOPIN 944 320 BiDir
FLAG 592 928 VSS
IOPIN 592 928 BiDir
FLAG 576 512 VSS
IOPIN 576 512 BiDir
FLAG 1136 544 VSS
IOPIN 1136 544 BiDir
FLAG 432 928 VBody
IOPIN 432 928 BiDir
FLAG 1536 928 VO_N
IOPIN 1536 928 BiDir
FLAG 1376 928 VO_P
IOPIN 1376 928 BiDir
FLAG 2256 448 VO_N
IOPIN 2256 448 BiDir
FLAG 2256 272 VO_P
IOPIN 2256 272 BiDir
FLAG 2160 496 0
FLAG 1536 1072 0
FLAG -864 -320 0
FLAG -864 -480 Qrst
IOPIN -864 -480 BiDir
FLAG -1184 -320 0
FLAG -1184 -480 mQrst
IOPIN -1184 -480 BiDir
FLAG -2208 -320 0
FLAG -2208 -480 mQc1
IOPIN -2208 -480 BiDir
FLAG -1696 32 0
FLAG -1696 -128 mQr12
IOPIN -1696 -128 BiDir
FLAG -2224 32 0
FLAG -2224 -128 mQr3
IOPIN -2224 -128 BiDir
FLAG 32 624 0
FLAG 2400 336 RST
IOPIN 2400 336 BiDir
FLAG 2256 880 VO_N
IOPIN 2256 880 BiDir
FLAG 2256 704 VO_P
IOPIN 2256 704 BiDir
FLAG 2160 928 0
FLAG 2400 768 RST_b
IOPIN 2400 768 BiDir
FLAG 1136 464 0
FLAG 1936 288 0
FLAG 1936 720 0
FLAG 1920 352 com_o
IOPIN 1920 352 BiDir
FLAG 1920 784 com_o_b
IOPIN 1920 784 BiDir
FLAG 1424 352 com_o
IOPIN 1424 352 BiDir
FLAG 1424 384 com_o_b
IOPIN 1424 384 BiDir
FLAG 528 -64 0
FLAG 688 -176 RST
IOPIN 688 -176 BiDir
FLAG 1344 688 0
FLAG 352 592 0
SYMBOL voltage 752 944 R0
SYMATTR InstName V1
SYMATTR Value 2.5
SYMBOL voltage 864 944 R0
SYMATTR InstName V2
SYMATTR Value 0
SYMBOL voltage 976 944 R0
WINDOW 123 0 0 Left 0
WINDOW 39 0 0 Left 0
SYMATTR InstName V3
SYMATTR Value 0.06
SYMBOL current -16 496 R0
WINDOW 123 0 0 Left 0
WINDOW 39 0 0 Left 0
WINDOW 3 -557 67 Left 2
SYMATTR Value PULSE(0 0 22u 10n 10n 990n 200u)
SYMATTR InstName I1
SYMBOL Res 432 416 R0
SYMATTR InstName R2
SYMATTR Value 1k
SYMBOL Res 224 352 R90
WINDOW 0 0 56 VBottom 2
WINDOW 3 32 56 VTop 2
SYMATTR InstName R3
SYMATTR Value 1k
SYMBOL Cap 464 224 R90
WINDOW 0 0 32 VBottom 2
WINDOW 3 32 32 VTop 2
SYMATTR InstName C1
SYMATTR Value 4p
SYMBOL opamp2 544 320 R0
SYMATTR InstName U1
SYMATTR Value LMP7721
SYMBOL Res 1040 304 R90
WINDOW 0 0 56 VBottom 2
WINDOW 3 32 56 VTop 2
SYMATTR InstName R1
SYMATTR Value 400
SYMBOL Res 640 -192 R90
WINDOW 0 0 56 VBottom 2
WINDOW 3 32 56 VTop 2
SYMATTR InstName R4
SYMATTR Value 100
SYMBOL current 80 448 R0
WINDOW 123 0 0 Left 0
WINDOW 39 0 0 Left 0
WINDOW 3 -595 15 Left 2
SYMATTR Value PULSE(0 0.01u 0 1u 1u 100ms 200ms)
SYMATTR InstName I2
SYMBOL LT1713 1120 368 R0
SYMATTR InstName U3
SYMBOL voltage 592 944 R0
SYMATTR InstName V4
SYMATTR Value -2.5
SYMBOL voltage 432 944 R0
SYMATTR InstName V5
SYMATTR Value -1
SYMBOL voltage 1536 944 R0
WINDOW 123 0 0 Left 0
WINDOW 39 0 0 Left 0
SYMATTR InstName V6
SYMATTR Value -3
SYMBOL voltage 1376 944 R0
SYMATTR InstName V7
SYMATTR Value 3
SYMBOL Res 1072 576 R180
WINDOW 0 36 76 Left 2
WINDOW 3 36 40 Left 2
SYMATTR InstName R5
SYMATTR Value 24.6k
SYMBOL bv -864 -448 R0
SYMATTR InstName B1
SYMATTR Value V={idt(I(R4))}
SYMBOL bv -1184 -448 R0
SYMATTR InstName B2
SYMATTR Value V=1000000000000*{idt(I(R4))}
SYMBOL bv -2208 -448 R0
SYMATTR InstName B4
SYMATTR Value V=1000000000000*{idt(I(C1))}
SYMBOL Res 352 352 R90
WINDOW 0 0 56 VBottom 2
WINDOW 3 32 34 VTop 2
SYMATTR InstName R12
SYMATTR Value 0.000001
SYMBOL bv -1696 -96 R0
SYMATTR InstName B6
SYMATTR Value V=1000000000000*{idt(I(R12))}
SYMBOL bv -2224 -96 R0
SYMATTR InstName B7
SYMATTR Value V=1000000000000*{idt(I(R3))}
SYMBOL Res 2096 176 R90
WINDOW 0 0 56 VBottom 2
WINDOW 3 32 56 VTop 2
SYMATTR InstName R7
SYMATTR Value 1k
SYMBOL Res 2096 336 R90
WINDOW 0 0 56 VBottom 2
WINDOW 3 32 56 VTop 2
SYMATTR InstName R8
SYMATTR Value 500
SYMBOL Res 2288 176 R90
WINDOW 0 0 56 VBottom 2
WINDOW 3 32 56 VTop 2
SYMATTR InstName R13
SYMATTR Value 2k
SYMBOL Res 2176 496 R180
WINDOW 0 36 76 Left 2
WINDOW 3 36 40 Left 2
SYMATTR InstName R14
SYMATTR Value 1k
SYMBOL Res 2096 608 R90
WINDOW 0 0 56 VBottom 2
WINDOW 3 32 56 VTop 2
SYMATTR InstName R15
SYMATTR Value 1k
SYMBOL Res 2096 768 R90
WINDOW 0 0 56 VBottom 2
WINDOW 3 32 56 VTop 2
SYMATTR InstName R16
SYMATTR Value 500
SYMBOL Res 2288 608 R90
WINDOW 0 0 56 VBottom 2
WINDOW 3 32 56 VTop 2
SYMATTR InstName R17
SYMATTR Value 2k
SYMBOL Res 2176 928 R180
WINDOW 0 36 76 Left 2
WINDOW 3 36 40 Left 2
SYMATTR InstName R18
SYMATTR Value 1k
SYMBOL voltage 1936 192 R0
SYMATTR InstName V8
SYMATTR Value 1.25
SYMBOL voltage 1936 624 R0
SYMATTR InstName V9
SYMATTR Value 1.25
SYMBOL OpAmps\\AD8041 2256 336 R0
SYMATTR InstName U2
SYMBOL OpAmps\\AD8041 2256 768 R0
SYMATTR InstName U4
SYMBOL sw 512 -16 R90
SYMATTR InstName S1
SYMATTR Value MYSW
SYMBOL Res 1360 608 R180
WINDOW 0 36 76 Left 2
WINDOW 3 36 40 Left 2
SYMATTR InstName R6
SYMATTR Value 10k
SYMBOL Cap 1360 480 R180
WINDOW 0 24 56 Left 2
WINDOW 3 24 8 Left 2
SYMATTR InstName C2
SYMATTR Value 270p
SYMBOL Cap 368 576 R180
WINDOW 0 24 56 Left 2
WINDOW 3 24 8 Left 2
SYMATTR InstName C3
SYMATTR Value {Cs}
SYMBOL Res 656 -32 R90
WINDOW 0 0 56 VBottom 2
WINDOW 3 32 56 VTop 2
SYMATTR InstName R9
SYMATTR Value 1k
TEXT -1040 -200 Left 2 !.lib LMP7721.lib\n.param sn=0 sp=0\n.lib BSIM3_180.lib
TEXT -1040 -112 Left 2 !.tran 0.21m
TEXT -1040 -232 Left 2 !.model MYSW SW(Ron=28k Roff=100G Vt=0.5 Vh=0.5)
TEXT -1040 -288 Left 2 !.options numdgt=15 ; force double float (numdgt>6)\n.options gmin=1e-25
TEXT -504 368 Left 2 !.step param Cs 10p 1000p 50p
