Version 4
SHEET 1 4136 1380
WIRE 64 -576 48 -576
WIRE 48 -512 48 -576
WIRE 48 -208 48 -432
WIRE 144 -208 48 -208
WIRE 144 -160 -144 -160
WIRE 352 -128 192 -128
WIRE 992 -128 352 -128
WIRE 1088 -128 992 -128
WIRE 1424 -128 1168 -128
WIRE 144 112 144 -112
WIRE 224 112 144 112
WIRE 384 112 224 112
WIRE 608 112 464 112
WIRE 976 160 864 160
WIRE 1072 160 1056 160
WIRE 1168 160 1072 160
WIRE 1376 160 1248 160
WIRE 1792 176 1632 176
WIRE 1632 224 1632 176
WIRE 1792 224 1792 176
WIRE 1856 224 1792 224
WIRE 2016 224 1936 224
WIRE 2048 224 2016 224
WIRE 2224 224 2128 224
WIRE 224 240 224 112
WIRE 400 240 224 240
WIRE 608 240 608 112
WIRE 608 240 464 240
WIRE 1136 240 1120 240
WIRE 384 304 368 304
WIRE 2112 304 2096 304
WIRE 1120 320 1120 240
WIRE 2096 336 2096 304
WIRE 368 352 368 304
WIRE 1072 352 1072 160
WIRE 1088 352 1072 352
WIRE 1344 352 1168 352
WIRE 1424 352 1344 352
WIRE 2016 352 2016 224
WIRE 2080 352 2016 352
WIRE 0 368 0 272
WIRE 0 368 -128 368
WIRE 80 368 80 272
WIRE 80 368 64 368
WIRE 224 368 224 240
WIRE 224 368 80 368
WIRE 336 368 224 368
WIRE 2144 368 2128 368
WIRE 2224 368 2224 224
WIRE 2224 368 2144 368
WIRE 2256 368 2224 368
WIRE 608 384 608 240
WIRE 608 384 400 384
WIRE 640 384 608 384
WIRE 720 384 640 384
WIRE 1088 384 720 384
WIRE 1376 384 1376 160
WIRE 1376 384 1168 384
WIRE 1424 384 1376 384
WIRE 1856 384 1776 384
WIRE 2016 384 1936 384
WIRE 2080 384 2016 384
WIRE 336 400 272 400
WIRE 1344 400 1344 352
WIRE -128 432 -128 368
WIRE 272 432 272 400
WIRE 2016 432 2016 384
WIRE -1504 448 -1504 416
WIRE -1344 448 -1344 416
WIRE -1184 448 -1184 416
WIRE -1072 448 -1072 416
WIRE -960 448 -960 416
WIRE -560 448 -560 416
WIRE -400 448 -400 416
WIRE 368 464 368 416
WIRE 384 464 368 464
WIRE 1136 464 1136 416
WIRE 1344 464 1296 464
WIRE 2096 480 2096 400
WIRE 2112 480 2096 480
WIRE 1120 496 1120 416
WIRE 1296 496 1296 464
WIRE 1296 496 1120 496
WIRE 1344 496 1344 464
WIRE 2016 528 2016 512
WIRE -128 544 -128 512
WIRE 1104 544 1104 416
WIRE 1136 544 1104 544
WIRE -1504 560 -1504 528
WIRE -1344 560 -1344 528
WIRE -1344 560 -1504 560
WIRE -1184 560 -1184 528
WIRE -1184 560 -1344 560
WIRE -1072 560 -1072 528
WIRE -1072 560 -1184 560
WIRE -960 560 -960 528
WIRE -960 560 -1072 560
WIRE -560 560 -560 528
WIRE -400 560 -400 528
WIRE -400 560 -560 560
WIRE -1072 576 -1072 560
WIRE 720 576 720 384
WIRE 720 704 720 656
FLAG -1072 576 0
FLAG -1184 416 VDD
IOPIN -1184 416 BiDir
FLAG -1072 416 Vref
IOPIN -1072 416 BiDir
FLAG -960 416 Vbb
IOPIN -960 416 BiDir
FLAG 272 512 Vref
IOPIN 272 512 BiDir
FLAG 384 304 VDD
IOPIN 384 304 BiDir
FLAG 224 240 CAP-in
FLAG 1136 240 VDD
IOPIN 1136 240 BiDir
FLAG 864 160 Vbb
IOPIN 864 160 BiDir
FLAG 1424 -128 RST
IOPIN 1424 -128 BiDir
FLAG -1344 416 VSS
IOPIN -1344 416 BiDir
FLAG 384 464 VSS
IOPIN 384 464 BiDir
FLAG 1136 544 VSS
IOPIN 1136 544 BiDir
FLAG -1504 416 VBody
IOPIN -1504 416 BiDir
FLAG -144 -160 VBody
IOPIN -144 -160 BiDir
FLAG -400 416 VO_N
IOPIN -400 416 BiDir
FLAG -560 416 VO_P
IOPIN -560 416 BiDir
FLAG 2112 480 VO_N
IOPIN 2112 480 BiDir
FLAG 2112 304 VO_P
IOPIN 2112 304 BiDir
FLAG 2016 528 0
FLAG -400 560 0
FLAG -128 544 0
FLAG 1136 464 0
FLAG 1632 304 0
FLAG 1776 384 com_o
IOPIN 1776 384 BiDir
FLAG 1424 352 com_o
IOPIN 1424 352 BiDir
FLAG 1424 384 com_o_b
IOPIN 1424 384 BiDir
FLAG 1344 576 0
FLAG 2256 368 RST
IOPIN 2256 368 BiDir
FLAG 992 -48 0
FLAG 640 384 out
FLAG 352 -128 Gate
FLAG 720 704 0
FLAG 64 -576 VO_P
IOPIN 64 -576 BiDir
FLAG -128 368 Vin
SYMBOL voltage -1184 432 R0
SYMATTR InstName V1
SYMATTR Value 2.5
SYMBOL voltage -1072 432 R0
SYMATTR InstName V2
SYMATTR Value 0
SYMBOL voltage -960 432 R0
WINDOW 123 0 0 Left 0
WINDOW 39 0 0 Left 0
SYMATTR InstName V3
SYMATTR Value 0
SYMBOL Res 256 416 R0
SYMATTR InstName R2
SYMATTR Value 1k
SYMBOL Cap 464 224 R90
WINDOW 0 0 32 VBottom 2
WINDOW 3 32 32 VTop 2
SYMATTR InstName C1
SYMATTR Value 0.1p
SYMBOL opamp2 368 320 R0
SYMATTR InstName U1
SYMATTR Value LMP7721
SYMBOL Res 64 -416 R180
WINDOW 0 36 76 Left 2
WINDOW 3 36 40 Left 2
SYMATTR InstName R6
SYMATTR Value 1k
SYMBOL nmos4 192 -208 M0
WINDOW 123 -21 67 VLeft 2
SYMATTR Value2 W=1u L=10u
SYMATTR InstName M2
SYMATTR Value NM
SYMATTR Prefix X
SYMBOL voltage -1344 432 R0
SYMATTR InstName V4
SYMATTR Value -2.5
SYMBOL voltage -1504 432 R0
SYMATTR InstName V5
SYMATTR Value -0.0106
SYMBOL voltage -400 432 R0
WINDOW 123 0 0 Left 0
WINDOW 39 0 0 Left 0
SYMATTR InstName V6
SYMATTR Value -1.8
SYMBOL voltage -560 432 R0
SYMATTR InstName V7
SYMATTR Value 1.8
SYMBOL Res 1952 208 R90
WINDOW 0 0 56 VBottom 2
WINDOW 3 32 56 VTop 2
SYMATTR InstName R7
SYMATTR Value 1k
SYMBOL Res 1952 368 R90
WINDOW 0 0 56 VBottom 2
WINDOW 3 32 56 VTop 2
SYMATTR InstName R8
SYMATTR Value 1k
SYMBOL Res 2144 208 R90
WINDOW 0 0 56 VBottom 2
WINDOW 3 32 56 VTop 2
SYMATTR InstName R13
SYMATTR Value 1k
SYMBOL Res 2032 528 R180
WINDOW 0 36 76 Left 2
WINDOW 3 36 40 Left 2
SYMATTR InstName R14
SYMATTR Value 300
SYMBOL voltage 1632 208 R0
SYMATTR InstName V8
SYMATTR Value 0.8
SYMBOL OpAmps\\AD8041 2112 368 R0
SYMATTR InstName U2
SYMBOL Res 1360 592 R180
WINDOW 0 36 76 Left 2
WINDOW 3 36 40 Left 2
SYMATTR InstName R19
SYMATTR Value 1k
SYMBOL Cap 1360 464 R180
WINDOW 0 24 56 Left 2
WINDOW 3 24 8 Left 2
SYMATTR InstName C2
SYMATTR Value 270p
SYMBOL voltage -128 416 R0
WINDOW 123 0 0 Left 0
WINDOW 39 0 0 Left 0
WINDOW 3 -71 101 Left 2
SYMATTR Value PULSE(0 -2 10u 100n 100n 50u 100u)
SYMATTR InstName V10
SYMBOL Res 1008 -32 R180
WINDOW 0 36 76 Left 2
WINDOW 3 36 40 Left 2
SYMATTR InstName R1
SYMATTR Value 1k
SYMBOL Res 736 672 R180
WINDOW 0 36 76 Left 2
WINDOW 3 36 40 Left 2
SYMATTR InstName R12
SYMATTR Value 10k
SYMBOL Cap 64 352 R90
WINDOW 0 82 33 VBottom 2
WINDOW 3 32 32 VTop 2
SYMATTR InstName C3
SYMATTR Value 0.038p
SYMBOL Res 1152 176 R270
WINDOW 0 32 56 VTop 2
WINDOW 3 0 56 VBottom 2
SYMATTR InstName R16
SYMATTR Value 203k
SYMBOL Res 960 176 R270
WINDOW 0 32 56 VTop 2
WINDOW 3 0 56 VBottom 2
SYMATTR InstName R17
SYMATTR Value 402
SYMBOL Res 1184 -144 R90
WINDOW 0 0 56 VBottom 2
WINDOW 3 32 56 VTop 2
SYMATTR InstName R18
SYMATTR Value 1
SYMBOL Comparators\\LT1711 1120 368 R0
SYMATTR InstName U4
SYMBOL Res 96 256 R90
WINDOW 0 0 56 VBottom 2
WINDOW 3 32 56 VTop 2
SYMATTR InstName R20
SYMATTR Value 1G
SYMBOL Res 480 96 R90
WINDOW 0 0 56 VBottom 2
WINDOW 3 32 56 VTop 2
SYMATTR InstName R3
SYMATTR Value 50G
TEXT -1264 112 Left 2 !.lib LMP7721.lib\n.param sn=0 sp=0\n.lib BSIM3_180.lib
TEXT -1264 200 Left 2 !.tran 0 1m 100u
