*
* Copyright 2019 by Artisan Components, Inc.
* This file has been provided pursuant to a License Agreement
* containing restrictions on its use.  This file contains valuable
* trade secrets and proprietary information of Artisan Components,
* Inc. and is protected by law.
*
** Generated by bif2cdl v3.2 **
** Version: 2003Q2V2
** Name: RF-2P-HS Register File Generator|TSMC CL018G Process
** Comment: 
** Configuration:  -instname "rf2p_512x64_4_50" -words 512 -bits 64 \
** Configuration: -frequency 50 -ring_width 10 -mux 4 -drive 3 -writ\
** Configuration: e_mask off -wp_size 8 -top_layer met6 -power_type \
** Configuration: rings -horiz met3 -vert met2 -cust_comment "" -lef\
** Configuration: t_bus_delim "[" -right_bus_delim "]" -pwr_gnd_rena\
** Configuration: me "VDD:VDD,GND:VSS" -prefix "" -pin_space 0.0 -na\
** Configuration: me_case upper -check_instname on -diodes on -insid\
** Configuration: e_ring_type GND
** Codefile: 
*
** begin lvs.header
** $Revision: 1.2 $
*.SCALE meter
** end lvs.header
*.BIPOLAR
*.DIOAREA
*.DIOPERI
*
****
.SUBCKT rf2p_512x64_4_50WR D DWA DWA_ GTP WEI_ VSS VDD
** rf2p_512x64_4_50WR: 41 flat devices **
d33 VSS D DN 0.3364P 2.32U
m1 DWA DWIN VDD VDD P L=0.18U W=1.56U
m10 N48 DWIN VDD VDD P L=0.18U W=0.42U
m11 DWPD N16 N47 VSS N L=0.18U W=0.42U
m12 N47 DWIN VSS VSS N L=0.18U W=0.42U
m13 DWPDB GTPND N50 VDD P L=0.18U W=0.42U
m14 N50 DWINB VDD VDD P L=0.18U W=0.42U
m15 DWPDB N16 N49 VSS N L=0.18U W=0.42U
m16 N49 DWINB VSS VSS N L=0.18U W=0.42U
m17 DWI DI VDD VDD P L=0.18U W=0.85U
m18 N51 DI VSS VSS N L=0.18U W=0.85U
m19 DWI N29 VDD VDD P L=0.18U W=0.85U
m2 DWA DWIN VSS VSS N L=0.18U W=2.92U
m20 DWI N29 N51 VSS N L=0.18U W=0.85U
m21 DWIB DI_ VDD VDD P L=0.18U W=0.85U
m22 N52 DI_ VSS VSS N L=0.18U W=0.85U
m23 DWIB N29 VDD VDD P L=0.18U W=0.85U
m24 DWIB N29 N52 VSS N L=0.18U W=0.85U
m25 DWPD N16 DWI VDD P L=0.18U W=0.85U
m26 DWPDB N16 DWIB VDD P L=0.18U W=0.85U
m27 DWPD GTPND DWI VSS N L=0.18U W=0.85U
m28 DWPDB GTPND DWIB VSS N L=0.18U W=0.85U
m29 GTPND GTP VDD VDD P L=0.18U W=0.65U
m3 DWA_ DWINB VDD VDD P L=0.18U W=1.56U
m30 GTPND GTP VSS VSS N L=0.18U W=0.3U
m31 N29 WEI_ VDD VDD P L=0.18U W=0.47U
m32 N29 WEI_ VSS VSS N L=0.18U W=0.22U
m34 DI_ DI VDD VDD P L=0.18U W=0.47U
m35 DI_ DI VSS VSS N L=0.18U W=0.22U
m36 DI N40 VDD VDD P L=0.18U W=0.47U
m37 DI N40 VSS VSS N L=0.18U W=0.22U
m38 N40 D VDD VDD P L=0.18U W=0.47U
m39 N40 D VSS VSS N L=0.18U W=0.22U
m4 DWA_ DWINB VSS VSS N L=0.18U W=2.92U
m40 N16 GTPND VDD VDD P L=0.18U W=0.76U
m41 N16 GTPND VSS VSS N L=0.18U W=0.36U
m5 DWIN DWPD VDD VDD P L=0.18U W=1.36U
m6 DWIN DWPD VSS VSS N L=0.18U W=0.64U
m7 DWINB DWPDB VDD VDD P L=0.18U W=1.36U
m8 DWINB DWPDB VSS VSS N L=0.18U W=0.64U
m9 DWPD GTPND N48 VDD P L=0.18U W=0.42U
.ENDS rf2p_512x64_4_50WR
****
.SUBCKT rf2p_512x64_4_50CDWL BLA BLA_ BLB BLB_ DW DWWR DW_ GTP YP YP0 YP1 YP2
+  YP3 VSS VDD
** rf2p_512x64_4_50CDWL: 14 flat devices **
m1 BLB YI VDD VDD P L=0.18U W=1.56U
m10 GTPIN N18 GTP VDD P L=0.18U W=0.64U
m11 GTP YP GTPIN VSS N L=0.18U W=0.3U
m12 N18 YP VDD VDD P L=0.18U W=0.47U
m13 N18 YP VSS VSS N L=0.18U W=0.22U
m14 VSS N18 GTPIN VSS N L=0.18U W=0.22U
m2 BLB_ YI VDD VDD P L=0.18U W=1.56U
m3 YI YIIN VDD VDD P L=0.18U W=3.2U
m4 YI YIIN VSS VSS N L=0.18U W=1.5U
m5 YIIN GTPIN VDD VDD P L=0.18U W=1.43U
m6 YIIN GTPIN VSS VSS N L=0.18U W=0.67U
m7 BLB YI BLB_ VDD P L=0.18U W=1.56U
m8 DW YI BLB VSS N L=0.18U W=2.92U
m9 DW_ YI BLB_ VSS N L=0.18U W=2.92U
.ENDS rf2p_512x64_4_50CDWL
****
.SUBCKT rf2p_512x64_4_50CDWR BLA BLA_ BLB BLB_ DW DWWR DW_ GTP YP YP0 YP1 YP2
+  YP3 VSS VDD
** rf2p_512x64_4_50CDWR: 14 flat devices **
m1 BLB YI VDD VDD P L=0.18U W=1.56U
m10 GTPIN N18 GTP VDD P L=0.18U W=0.64U
m11 GTP YP GTPIN VSS N L=0.18U W=0.3U
m12 N18 YP VDD VDD P L=0.18U W=0.47U
m13 N18 YP VSS VSS N L=0.18U W=0.22U
m14 VSS N18 GTPIN VSS N L=0.18U W=0.22U
m2 BLB_ YI VDD VDD P L=0.18U W=1.56U
m3 YI YIIN VDD VDD P L=0.18U W=3.2U
m4 YI YIIN VSS VSS N L=0.18U W=1.5U
m5 YIIN GTPIN VDD VDD P L=0.18U W=1.43U
m6 YIIN GTPIN VSS VSS N L=0.18U W=0.67U
m7 BLB YI BLB_ VDD P L=0.18U W=1.56U
m8 DW_ YI BLB VSS N L=0.18U W=2.92U
m9 DW YI BLB_ VSS N L=0.18U W=2.92U
.ENDS rf2p_512x64_4_50CDWR
****
.SUBCKT rf2p_512x64_4_50CDW_MUX_UP BLA BLA_ BLA_0 BLA_1 BLA_2 BLA__0 BLA__1
+  BLA__2 BLB BLB_ BLB_0 BLB_1 BLB_2 BLB__0 BLB__1 BLB__2 DWWR DWWR_0 DWWR_1
+  DWWR_2 GTP YP0 YP1 YP2 YP3 VSS VDD
** rf2p_512x64_4_50CDW_MUX_UP: 56 flat devices **
XI1 BLA BLA_ BLB BLB_ DWWR DWWR DWWR_0 GTP YP0 YP0 YP1 YP2 YP3 VSS VDD
+  rf2p_512x64_4_50CDWL
XI2 BLA_0 BLA__0 BLB_0 BLB__0 DWWR DWWR_0 DWWR_0 GTP YP1 YP0 YP1 YP2 YP3 VSS
+  VDD rf2p_512x64_4_50CDWR
XI3 BLA_1 BLA__1 BLB_1 BLB__1 DWWR DWWR_1 DWWR_0 GTP YP2 YP0 YP1 YP2 YP3 VSS
+  VDD rf2p_512x64_4_50CDWL
XI4 BLA_2 BLA__2 BLB_2 BLB__2 DWWR DWWR_2 DWWR_0 GTP YP3 YP0 YP1 YP2 YP3 VSS
+  VDD rf2p_512x64_4_50CDWR
.ENDS rf2p_512x64_4_50CDW_MUX_UP
****
.SUBCKT rf2p_512x64_4_50WR_MUX_UP_M BLA BLA_ BLA_0 BLA_1 BLA_2 BLA__0 BLA__1
+  BLA__2 BLB BLB_ BLB_0 BLB_1 BLB_2 BLB__0 BLB__1 BLB__2 D GTP GTP_0 WEI YP0
+  YP1 YP2 YP3 VSS VDD
** rf2p_512x64_4_50WR_MUX_UP_M: 97 flat devices **
XI0_0 D DWA DWA_ GTP WEI VSS VDD rf2p_512x64_4_50WR
XI0_1 BLA BLA_ BLA_0 BLA_1 BLA_2 BLA__0 BLA__1 BLA__2 BLB BLB_ BLB_0 BLB_1
+  BLB_2 BLB__0 BLB__1 BLB__2 DWA DWA_ VSS VSS GTP_0 YP0 YP1 YP2 YP3 VSS VDD
+  rf2p_512x64_4_50CDW_MUX_UP
.ENDS rf2p_512x64_4_50WR_MUX_UP_M
****
.SUBCKT rf2p_512x64_4_50CCG BLA BLA_ BLB BLB_ WLA WLB VSS VDD
** rf2p_512x64_4_50CCG: 8 flat devices **
m1 BLB WLB CORED VSS N L=0.18U W=0.42U
m2 BLB_ WLB CORED_ VSS N L=0.18U W=0.42U
m3 BLA WLA CORED VSS N L=0.18U W=0.42U
m4 BLA_ WLA CORED_ VSS N L=0.18U W=0.42U
m5 CORED_ CORED VDD VDD P L=0.18U W=0.22U
m6 CORED_ CORED VSS VSS N L=0.18U W=1.49U
m7 CORED CORED_ VDD VDD P L=0.18U W=0.22U
m8 CORED CORED_ VSS VSS N L=0.18U W=1.49U
.ENDS rf2p_512x64_4_50CCG
****
.SUBCKT rf2p_512x64_4_50CCG2 BLA BLA_ BLB BLB_ WLA WLA_0 WLB WLB_0 VSS VDD
** rf2p_512x64_4_50CCG2: 16 flat devices **
XI0 BLA BLA_ BLB BLB_ WLA WLB VSS VDD rf2p_512x64_4_50CCG
XI1 BLA BLA_ BLB BLB_ WLA_0 WLB_0 VSS VDD rf2p_512x64_4_50CCG
.ENDS rf2p_512x64_4_50CCG2
****
.SUBCKT rf2p_512x64_4_50HCCMWG BLA BLA_ BLB BLB_ WLA0 WLA1 WLB0 WLB1 VSS VDD
** rf2p_512x64_4_50HCCMWG: 16 flat devices **
m1 N12 WLB0 CCMWG0-CORED VSS N L=0.18U W=0.42U
m10 N21 WLB1 CCMWG1-CORED_ VSS N L=0.18U W=0.42U
m11 N23 WLA1 CCMWG1-CORED VSS N L=0.18U W=0.42U
m12 N24 WLA1 CCMWG1-CORED_ VSS N L=0.18U W=0.42U
m13 CCMWG1-CORED_ CCMWG1-CORED VDD VDD P L=0.18U W=0.22U
m14 CCMWG1-CORED_ CCMWG1-CORED VSS VSS N L=0.18U W=1.49U
m15 CCMWG1-CORED CCMWG1-CORED_ VDD VDD P L=0.18U W=0.22U
m16 CCMWG1-CORED CCMWG1-CORED_ VSS VSS N L=0.18U W=1.49U
m2 N11 WLB0 CCMWG0-CORED_ VSS N L=0.18U W=0.42U
m3 N13 WLA0 CCMWG0-CORED VSS N L=0.18U W=0.42U
m4 N14 WLA0 CCMWG0-CORED_ VSS N L=0.18U W=0.42U
m5 CCMWG0-CORED_ CCMWG0-CORED VDD VDD P L=0.18U W=0.22U
m6 CCMWG0-CORED_ CCMWG0-CORED VSS VSS N L=0.18U W=1.49U
m7 CCMWG0-CORED CCMWG0-CORED_ VDD VDD P L=0.18U W=0.22U
m8 CCMWG0-CORED CCMWG0-CORED_ VSS VSS N L=0.18U W=1.49U
m9 N22 WLB1 CCMWG1-CORED VSS N L=0.18U W=0.42U
.ENDS rf2p_512x64_4_50HCCMWG
****
.SUBCKT rf2p_512x64_4_50CC_COL_HCCMWG BLA BLA_ BLB BLB_ WLA WLA0 WLA1 WLA_0
+  WLA_1 WLA_2 WLA_3 WLA_4 WLA_5 WLA_6 WLA_7 WLA_8 WLA_9 WLA_10 WLA_11 WLA_12
+  WLA_13 WLA_14 WLA_15 WLA_16 WLA_17 WLA_18 WLA_19 WLA_20 WLA_21 WLA_22
+  WLA_23 WLA_24 WLA_25 WLA_26 WLA_27 WLA_28 WLA_29 WLA_30 WLA_31 WLA_32
+  WLA_33 WLA_34 WLA_35 WLA_36 WLA_37 WLA_38 WLA_39 WLA_40 WLA_41 WLA_42
+  WLA_43 WLA_44 WLA_45 WLA_46 WLA_47 WLA_48 WLA_49 WLA_50 WLA_51 WLA_52
+  WLA_53 WLA_54 WLA_55 WLA_56 WLA_57 WLA_58 WLA_59 WLA_60 WLA_61 WLA_62
+  WLA_63 WLA_64 WLA_65 WLA_66 WLA_67 WLA_68 WLA_69 WLA_70 WLA_71 WLA_72
+  WLA_73 WLA_74 WLA_75 WLA_76 WLA_77 WLA_78 WLA_79 WLA_80 WLA_81 WLA_82
+  WLA_83 WLA_84 WLA_85 WLA_86 WLA_87 WLA_88 WLA_89 WLA_90 WLA_91 WLA_92
+  WLA_93 WLA_94 WLA_95 WLA_96 WLA_97 WLA_98 WLA_99 WLA_100 WLA_101 WLA_102
+  WLA_103 WLA_104 WLA_105 WLA_106 WLA_107 WLA_108 WLA_109 WLA_110 WLA_111
+  WLA_112 WLA_113 WLA_114 WLA_115 WLA_116 WLA_117 WLA_118 WLA_119 WLA_120
+  WLA_121 WLA_122 WLA_123 WLA_124 WLA_125 WLA_126 WLB WLB0 WLB1 WLB_0 WLB_1
+  WLB_2 WLB_3 WLB_4 WLB_5 WLB_6 WLB_7 WLB_8 WLB_9 WLB_10 WLB_11 WLB_12 WLB_13
+  WLB_14 WLB_15 WLB_16 WLB_17 WLB_18 WLB_19 WLB_20 WLB_21 WLB_22 WLB_23
+  WLB_24 WLB_25 WLB_26 WLB_27 WLB_28 WLB_29 WLB_30 WLB_31 WLB_32 WLB_33
+  WLB_34 WLB_35 WLB_36 WLB_37 WLB_38 WLB_39 WLB_40 WLB_41 WLB_42 WLB_43
+  WLB_44 WLB_45 WLB_46 WLB_47 WLB_48 WLB_49 WLB_50 WLB_51 WLB_52 WLB_53
+  WLB_54 WLB_55 WLB_56 WLB_57 WLB_58 WLB_59 WLB_60 WLB_61 WLB_62 WLB_63
+  WLB_64 WLB_65 WLB_66 WLB_67 WLB_68 WLB_69 WLB_70 WLB_71 WLB_72 WLB_73
+  WLB_74 WLB_75 WLB_76 WLB_77 WLB_78 WLB_79 WLB_80 WLB_81 WLB_82 WLB_83
+  WLB_84 WLB_85 WLB_86 WLB_87 WLB_88 WLB_89 WLB_90 WLB_91 WLB_92 WLB_93
+  WLB_94 WLB_95 WLB_96 WLB_97 WLB_98 WLB_99 WLB_100 WLB_101 WLB_102 WLB_103
+  WLB_104 WLB_105 WLB_106 WLB_107 WLB_108 WLB_109 WLB_110 WLB_111 WLB_112
+  WLB_113 WLB_114 WLB_115 WLB_116 WLB_117 WLB_118 WLB_119 WLB_120 WLB_121
+  WLB_122 WLB_123 WLB_124 WLB_125 WLB_126 VSS VDD
** rf2p_512x64_4_50CC_COL_HCCMWG: 1040 flat devices **
XI0 BLA_ BLA BLB_ BLB WLA WLA_0 WLB WLB_0 VSS VDD rf2p_512x64_4_50CCG2
XI1 BLA_ BLA BLB_ BLB WLA_1 WLA_2 WLB_1 WLB_2 VSS VDD rf2p_512x64_4_50CCG2
XI10 BLA_ BLA BLB_ BLB WLA_19 WLA_20 WLB_19 WLB_20 VSS VDD
+  rf2p_512x64_4_50CCG2
XI11 BLA_ BLA BLB_ BLB WLA_21 WLA_22 WLB_21 WLB_22 VSS VDD
+  rf2p_512x64_4_50CCG2
XI12 BLA_ BLA BLB_ BLB WLA_23 WLA_24 WLB_23 WLB_24 VSS VDD
+  rf2p_512x64_4_50CCG2
XI13 BLA_ BLA BLB_ BLB WLA_25 WLA_26 WLB_25 WLB_26 VSS VDD
+  rf2p_512x64_4_50CCG2
XI14 BLA_ BLA BLB_ BLB WLA_27 WLA_28 WLB_27 WLB_28 VSS VDD
+  rf2p_512x64_4_50CCG2
XI15 BLA_ BLA BLB_ BLB WLA_29 WLA_30 WLB_29 WLB_30 VSS VDD
+  rf2p_512x64_4_50CCG2
XI17 BLA BLA_ BLB BLB_ WLA_31 WLA_32 WLB_31 WLB_32 VSS VDD
+  rf2p_512x64_4_50CCG2
XI18 BLA BLA_ BLB BLB_ WLA_33 WLA_34 WLB_33 WLB_34 VSS VDD
+  rf2p_512x64_4_50CCG2
XI19 BLA BLA_ BLB BLB_ WLA_35 WLA_36 WLB_35 WLB_36 VSS VDD
+  rf2p_512x64_4_50CCG2
XI2 BLA_ BLA BLB_ BLB WLA_3 WLA_4 WLB_3 WLB_4 VSS VDD rf2p_512x64_4_50CCG2
XI20 BLA BLA_ BLB BLB_ WLA_37 WLA_38 WLB_37 WLB_38 VSS VDD
+  rf2p_512x64_4_50CCG2
XI21 BLA BLA_ BLB BLB_ WLA_39 WLA_40 WLB_39 WLB_40 VSS VDD
+  rf2p_512x64_4_50CCG2
XI22 BLA BLA_ BLB BLB_ WLA_41 WLA_42 WLB_41 WLB_42 VSS VDD
+  rf2p_512x64_4_50CCG2
XI23 BLA BLA_ BLB BLB_ WLA_43 WLA_44 WLB_43 WLB_44 VSS VDD
+  rf2p_512x64_4_50CCG2
XI24 BLA BLA_ BLB BLB_ WLA_45 WLA_46 WLB_45 WLB_46 VSS VDD
+  rf2p_512x64_4_50CCG2
XI25 BLA BLA_ BLB BLB_ WLA_47 WLA_48 WLB_47 WLB_48 VSS VDD
+  rf2p_512x64_4_50CCG2
XI26 BLA BLA_ BLB BLB_ WLA_49 WLA_50 WLB_49 WLB_50 VSS VDD
+  rf2p_512x64_4_50CCG2
XI27 BLA BLA_ BLB BLB_ WLA_51 WLA_52 WLB_51 WLB_52 VSS VDD
+  rf2p_512x64_4_50CCG2
XI28 BLA BLA_ BLB BLB_ WLA_53 WLA_54 WLB_53 WLB_54 VSS VDD
+  rf2p_512x64_4_50CCG2
XI29 BLA BLA_ BLB BLB_ WLA_55 WLA_56 WLB_55 WLB_56 VSS VDD
+  rf2p_512x64_4_50CCG2
XI3 BLA_ BLA BLB_ BLB WLA_5 WLA_6 WLB_5 WLB_6 VSS VDD rf2p_512x64_4_50CCG2
XI30 BLA BLA_ BLB BLB_ WLA_57 WLA_58 WLB_57 WLB_58 VSS VDD
+  rf2p_512x64_4_50CCG2
XI31 BLA BLA_ BLB BLB_ WLA_59 WLA_60 WLB_59 WLB_60 VSS VDD
+  rf2p_512x64_4_50CCG2
XI32 BLA BLA_ BLB BLB_ WLA_61 WLA_62 WLB_61 WLB_62 VSS VDD
+  rf2p_512x64_4_50CCG2
XI33 BLA_ BLA BLB_ BLB WLA0 WLA1 WLB0 WLB1 VSS VDD rf2p_512x64_4_50HCCMWG
XI34 BLA_ BLA BLB_ BLB WLA_63 WLA_64 WLB_63 WLB_64 VSS VDD
+  rf2p_512x64_4_50CCG2
XI35 BLA_ BLA BLB_ BLB WLA_65 WLA_66 WLB_65 WLB_66 VSS VDD
+  rf2p_512x64_4_50CCG2
XI36 BLA_ BLA BLB_ BLB WLA_67 WLA_68 WLB_67 WLB_68 VSS VDD
+  rf2p_512x64_4_50CCG2
XI37 BLA_ BLA BLB_ BLB WLA_69 WLA_70 WLB_69 WLB_70 VSS VDD
+  rf2p_512x64_4_50CCG2
XI38 BLA_ BLA BLB_ BLB WLA_71 WLA_72 WLB_71 WLB_72 VSS VDD
+  rf2p_512x64_4_50CCG2
XI39 BLA_ BLA BLB_ BLB WLA_73 WLA_74 WLB_73 WLB_74 VSS VDD
+  rf2p_512x64_4_50CCG2
XI4 BLA_ BLA BLB_ BLB WLA_7 WLA_8 WLB_7 WLB_8 VSS VDD rf2p_512x64_4_50CCG2
XI40 BLA_ BLA BLB_ BLB WLA_75 WLA_76 WLB_75 WLB_76 VSS VDD
+  rf2p_512x64_4_50CCG2
XI41 BLA_ BLA BLB_ BLB WLA_77 WLA_78 WLB_77 WLB_78 VSS VDD
+  rf2p_512x64_4_50CCG2
XI42 BLA_ BLA BLB_ BLB WLA_79 WLA_80 WLB_79 WLB_80 VSS VDD
+  rf2p_512x64_4_50CCG2
XI43 BLA_ BLA BLB_ BLB WLA_81 WLA_82 WLB_81 WLB_82 VSS VDD
+  rf2p_512x64_4_50CCG2
XI44 BLA_ BLA BLB_ BLB WLA_83 WLA_84 WLB_83 WLB_84 VSS VDD
+  rf2p_512x64_4_50CCG2
XI45 BLA_ BLA BLB_ BLB WLA_85 WLA_86 WLB_85 WLB_86 VSS VDD
+  rf2p_512x64_4_50CCG2
XI46 BLA_ BLA BLB_ BLB WLA_87 WLA_88 WLB_87 WLB_88 VSS VDD
+  rf2p_512x64_4_50CCG2
XI47 BLA_ BLA BLB_ BLB WLA_89 WLA_90 WLB_89 WLB_90 VSS VDD
+  rf2p_512x64_4_50CCG2
XI48 BLA_ BLA BLB_ BLB WLA_91 WLA_92 WLB_91 WLB_92 VSS VDD
+  rf2p_512x64_4_50CCG2
XI5 BLA_ BLA BLB_ BLB WLA_9 WLA_10 WLB_9 WLB_10 VSS VDD rf2p_512x64_4_50CCG2
XI50 BLA BLA_ BLB BLB_ WLA_93 WLA_94 WLB_93 WLB_94 VSS VDD
+  rf2p_512x64_4_50CCG2
XI51 BLA BLA_ BLB BLB_ WLA_95 WLA_96 WLB_95 WLB_96 VSS VDD
+  rf2p_512x64_4_50CCG2
XI52 BLA BLA_ BLB BLB_ WLA_97 WLA_98 WLB_97 WLB_98 VSS VDD
+  rf2p_512x64_4_50CCG2
XI53 BLA BLA_ BLB BLB_ WLA_99 WLA_100 WLB_99 WLB_100 VSS VDD
+  rf2p_512x64_4_50CCG2
XI54 BLA BLA_ BLB BLB_ WLA_101 WLA_102 WLB_101 WLB_102 VSS VDD
+  rf2p_512x64_4_50CCG2
XI55 BLA BLA_ BLB BLB_ WLA_103 WLA_104 WLB_103 WLB_104 VSS VDD
+  rf2p_512x64_4_50CCG2
XI56 BLA BLA_ BLB BLB_ WLA_105 WLA_106 WLB_105 WLB_106 VSS VDD
+  rf2p_512x64_4_50CCG2
XI57 BLA BLA_ BLB BLB_ WLA_107 WLA_108 WLB_107 WLB_108 VSS VDD
+  rf2p_512x64_4_50CCG2
XI58 BLA BLA_ BLB BLB_ WLA_109 WLA_110 WLB_109 WLB_110 VSS VDD
+  rf2p_512x64_4_50CCG2
XI59 BLA BLA_ BLB BLB_ WLA_111 WLA_112 WLB_111 WLB_112 VSS VDD
+  rf2p_512x64_4_50CCG2
XI6 BLA_ BLA BLB_ BLB WLA_11 WLA_12 WLB_11 WLB_12 VSS VDD rf2p_512x64_4_50CCG2
XI60 BLA BLA_ BLB BLB_ WLA_113 WLA_114 WLB_113 WLB_114 VSS VDD
+  rf2p_512x64_4_50CCG2
XI61 BLA BLA_ BLB BLB_ WLA_115 WLA_116 WLB_115 WLB_116 VSS VDD
+  rf2p_512x64_4_50CCG2
XI62 BLA BLA_ BLB BLB_ WLA_117 WLA_118 WLB_117 WLB_118 VSS VDD
+  rf2p_512x64_4_50CCG2
XI63 BLA BLA_ BLB BLB_ WLA_119 WLA_120 WLB_119 WLB_120 VSS VDD
+  rf2p_512x64_4_50CCG2
XI64 BLA BLA_ BLB BLB_ WLA_121 WLA_122 WLB_121 WLB_122 VSS VDD
+  rf2p_512x64_4_50CCG2
XI65 BLA BLA_ BLB BLB_ WLA_123 WLA_124 WLB_123 WLB_124 VSS VDD
+  rf2p_512x64_4_50CCG2
XI66 BLA BLA_ BLB BLB_ WLA_125 WLA_126 WLB_125 WLB_126 VSS VDD
+  rf2p_512x64_4_50CCG2
XI7 BLA_ BLA BLB_ BLB WLA_13 WLA_14 WLB_13 WLB_14 VSS VDD rf2p_512x64_4_50CCG2
XI8 BLA_ BLA BLB_ BLB WLA_15 WLA_16 WLB_15 WLB_16 VSS VDD rf2p_512x64_4_50CCG2
XI9 BLA_ BLA BLB_ BLB WLA_17 WLA_18 WLB_17 WLB_18 VSS VDD rf2p_512x64_4_50CCG2
.ENDS rf2p_512x64_4_50CC_COL_HCCMWG
****
.SUBCKT rf2p_512x64_4_50SA DR DR_ GTPSA_ GTPTOSA Q VSS VDD
** rf2p_512x64_4_50SA: 33 flat devices **
d30 VSS Q DN 0.3364P 2.32U
m1 SD N19 DR VDD P L=0.18U W=0.44U
m10 SI_ SD_ VDD VDD P L=0.18U W=0.47U
m11 SI_ SD_ VSS VSS N L=0.18U W=0.22U
m12 SDB SI VSS VSS N L=0.18U W=1.7U
m13 SDB_ SI_ VSS VSS N L=0.18U W=1.7U
m14 SDB_ SDB VDD VDD P L=0.18U W=1.36U
m15 SDB_ SDB VSS VSS N L=0.18U W=0.22U
m16 SDB SDB_ VDD VDD P L=0.18U W=0.47U
m17 SDB SDB_ VSS VSS N L=0.18U W=0.22U
m18 Q SDB_ VDD VDD P L=0.18U W=3.82U
m19 Q SDB_ VSS VSS N L=0.18U W=1.8U
m2 DR_ N19 SD_ VDD P L=0.18U W=0.44U
m20 DR_ PRE VDD VDD P L=0.18U W=1.16U
m21 DR PRE VDD VDD P L=0.18U W=1.16U
m22 DR PRE DR_ VDD P L=0.18U W=1.16U
m23 N38 GTPTOSA VDD VDD P L=0.18U W=0.47U
m24 N38 GTPTOSA VSS VSS N L=0.18U W=0.22U
m25 N19 GTPSA_ VDD VDD P L=0.18U W=0.51U
m26 N19 GTPSA_ VSS VSS N L=0.18U W=0.24U
m27 PRE N38 VDD VDD P L=0.18U W=1.04U
m28 PRE N38 VSS VSS N L=0.18U W=0.49U
m29 SD VSS SD_ VSS N L=0.18U W=0.84U
m3 SD SD_ VDD VDD P L=0.18U W=0.22U
m31 SRC GTPSA_ VDD VSS N L=0.18U W=0.44U
m32 SD_ VDD SD VDD P L=0.18U W=0.22U
m33 SD_ VDD SD VDD P L=0.18U W=0.44U
m4 SD_ SD VDD VDD P L=0.18U W=0.22U
m5 SRC N19 VSS VSS N L=0.18U W=0.84U
m6 SD SD_ SRC VSS N L=0.18U W=0.84U
m7 SD_ SD SRC VSS N L=0.18U W=0.84U
m8 SI SD VDD VDD P L=0.18U W=0.47U
m9 SI SD VSS VSS N L=0.18U W=0.22U
.ENDS rf2p_512x64_4_50SA
****
.SUBCKT rf2p_512x64_4_50CDRL BLA BLA_ BLB BLB_ DR DRSA DR_ GTP GTPTOSA YP YP0
+  YP1 YP2 YP3 VSS VDD
** rf2p_512x64_4_50CDRL: 14 flat devices **
m1 BLA YI VDD VDD P L=0.18U W=1.55U
m10 GTPIN YPIN GTP VDD P L=0.18U W=0.47U
m11 GTP YP GTPIN VSS N L=0.18U W=0.22U
m12 YPIN YP VDD VDD P L=0.18U W=0.7U
m13 YPIN YP VSS VSS N L=0.18U W=0.33U
m14 VSS YPIN GTPIN VSS N L=0.18U W=0.22U
m2 BLA_ YI VDD VDD P L=0.18U W=1.55U
m3 YI YIIN VDD VDD P L=0.18U W=1.41U
m4 YI YIIN VSS VSS N L=0.18U W=0.66U
m5 YIIN GTPIN VDD VDD P L=0.18U W=0.47U
m6 YIIN GTPIN VSS VSS N L=0.18U W=0.22U
m7 BLA YI BLA_ VDD P L=0.18U W=1.55U
m8 BLA YPIN DR VDD P L=0.18U W=1.35U
m9 BLA_ YPIN DR_ VDD P L=0.18U W=1.35U
.ENDS rf2p_512x64_4_50CDRL
****
.SUBCKT rf2p_512x64_4_50CDRR BLA BLA_ BLB BLB_ DR DRSA DR_ GTP GTPTOSA YP YP0
+  YP1 YP2 YP3 VSS VDD
** rf2p_512x64_4_50CDRR: 14 flat devices **
m1 BLA YI VDD VDD P L=0.18U W=1.55U
m10 GTPIN YPIN GTP VDD P L=0.18U W=0.47U
m11 GTP YP GTPIN VSS N L=0.18U W=0.22U
m12 YPIN YP VDD VDD P L=0.18U W=0.7U
m13 YPIN YP VSS VSS N L=0.18U W=0.33U
m14 VSS YPIN GTPIN VSS N L=0.18U W=0.22U
m2 BLA_ YI VDD VDD P L=0.18U W=1.55U
m3 YI YIIN VDD VDD P L=0.18U W=1.41U
m4 YI YIIN VSS VSS N L=0.18U W=0.66U
m5 YIIN GTPIN VDD VDD P L=0.18U W=0.47U
m6 YIIN GTPIN VSS VSS N L=0.18U W=0.22U
m7 BLA YI BLA_ VDD P L=0.18U W=1.55U
m8 BLA YPIN DR_ VDD P L=0.18U W=1.35U
m9 BLA_ YPIN DR VDD P L=0.18U W=1.35U
.ENDS rf2p_512x64_4_50CDRR
****
.SUBCKT rf2p_512x64_4_50CDR_MUX_UP BLA BLA_ BLA_0 BLA_1 BLA_2 BLA__0 BLA__1
+  BLA__2 BLB BLB_ BLB_0 BLB_1 BLB_2 BLB__0 BLB__1 BLB__2 DRSA DRSA_0 DRSA_1
+  DRSA_2 GTP GTPTOSA GTPTOSA_0 GTPTOSA_1 YP0 YP1 YP2 YP3 VSS VDD
** rf2p_512x64_4_50CDR_MUX_UP: 56 flat devices **
XI1 BLA BLA_ BLB BLB_ DRSA DRSA DRSA_0 GTP GTP YP0 YP0 YP1 YP2 YP3 VSS VDD
+  rf2p_512x64_4_50CDRL
XI2 BLA_0 BLA__0 BLB_0 BLB__0 DRSA DRSA_0 DRSA_0 GTP GTPTOSA YP1 YP0 YP1 YP2
+  YP3 VSS VDD rf2p_512x64_4_50CDRR
XI3 BLA_1 BLA__1 BLB_1 BLB__1 DRSA DRSA_1 DRSA_0 GTP GTPTOSA_0 YP2 YP0 YP1 YP2
+  YP3 VSS VDD rf2p_512x64_4_50CDRL
XI4 BLA_2 BLA__2 BLB_2 BLB__2 DRSA DRSA_2 DRSA_0 GTP GTPTOSA_1 YP3 YP0 YP1 YP2
+  YP3 VSS VDD rf2p_512x64_4_50CDRR
.ENDS rf2p_512x64_4_50CDR_MUX_UP
****
.SUBCKT rf2p_512x64_4_50RD_MUX_UP BLA BLA_ BLA_0 BLA_1 BLA_2 BLA__0 BLA__1
+  BLA__2 BLB BLB_ BLB_0 BLB_1 BLB_2 BLB__0 BLB__1 BLB__2 GTP GTPSA Q YP0 YP1
+  YP2 YP3 VSS VDD
** rf2p_512x64_4_50RD_MUX_UP: 89 flat devices **
XI0_0 DR DR_ GTPSA GTP Q VSS VDD rf2p_512x64_4_50SA
XI0_1 BLA BLA_ BLA_0 BLA_1 BLA_2 BLA__0 BLA__1 BLA__2 BLB BLB_ BLB_0 BLB_1
+  BLB_2 BLB__0 BLB__1 BLB__2 DR DR_ VSS VSS GTP VSS VSS VSS YP0 YP1 YP2 YP3
+  VSS VDD rf2p_512x64_4_50CDR_MUX_UP
.ENDS rf2p_512x64_4_50RD_MUX_UP
****
.SUBCKT rf2p_512x64_4_50BCOL_M_UP D GTP GTPSA GTP_0 GTP_1 Q WEI WLA WLA0 WLA1
+  WLA_0 WLA_1 WLA_2 WLA_3 WLA_4 WLA_5 WLA_6 WLA_7 WLA_8 WLA_9 WLA_10 WLA_11
+  WLA_12 WLA_13 WLA_14 WLA_15 WLA_16 WLA_17 WLA_18 WLA_19 WLA_20 WLA_21
+  WLA_22 WLA_23 WLA_24 WLA_25 WLA_26 WLA_27 WLA_28 WLA_29 WLA_30 WLA_31
+  WLA_32 WLA_33 WLA_34 WLA_35 WLA_36 WLA_37 WLA_38 WLA_39 WLA_40 WLA_41
+  WLA_42 WLA_43 WLA_44 WLA_45 WLA_46 WLA_47 WLA_48 WLA_49 WLA_50 WLA_51
+  WLA_52 WLA_53 WLA_54 WLA_55 WLA_56 WLA_57 WLA_58 WLA_59 WLA_60 WLA_61
+  WLA_62 WLA_63 WLA_64 WLA_65 WLA_66 WLA_67 WLA_68 WLA_69 WLA_70 WLA_71
+  WLA_72 WLA_73 WLA_74 WLA_75 WLA_76 WLA_77 WLA_78 WLA_79 WLA_80 WLA_81
+  WLA_82 WLA_83 WLA_84 WLA_85 WLA_86 WLA_87 WLA_88 WLA_89 WLA_90 WLA_91
+  WLA_92 WLA_93 WLA_94 WLA_95 WLA_96 WLA_97 WLA_98 WLA_99 WLA_100 WLA_101
+  WLA_102 WLA_103 WLA_104 WLA_105 WLA_106 WLA_107 WLA_108 WLA_109 WLA_110
+  WLA_111 WLA_112 WLA_113 WLA_114 WLA_115 WLA_116 WLA_117 WLA_118 WLA_119
+  WLA_120 WLA_121 WLA_122 WLA_123 WLA_124 WLA_125 WLA_126 WLB WLB0 WLB1 WLB_0
+  WLB_1 WLB_2 WLB_3 WLB_4 WLB_5 WLB_6 WLB_7 WLB_8 WLB_9 WLB_10 WLB_11 WLB_12
+  WLB_13 WLB_14 WLB_15 WLB_16 WLB_17 WLB_18 WLB_19 WLB_20 WLB_21 WLB_22
+  WLB_23 WLB_24 WLB_25 WLB_26 WLB_27 WLB_28 WLB_29 WLB_30 WLB_31 WLB_32
+  WLB_33 WLB_34 WLB_35 WLB_36 WLB_37 WLB_38 WLB_39 WLB_40 WLB_41 WLB_42
+  WLB_43 WLB_44 WLB_45 WLB_46 WLB_47 WLB_48 WLB_49 WLB_50 WLB_51 WLB_52
+  WLB_53 WLB_54 WLB_55 WLB_56 WLB_57 WLB_58 WLB_59 WLB_60 WLB_61 WLB_62
+  WLB_63 WLB_64 WLB_65 WLB_66 WLB_67 WLB_68 WLB_69 WLB_70 WLB_71 WLB_72
+  WLB_73 WLB_74 WLB_75 WLB_76 WLB_77 WLB_78 WLB_79 WLB_80 WLB_81 WLB_82
+  WLB_83 WLB_84 WLB_85 WLB_86 WLB_87 WLB_88 WLB_89 WLB_90 WLB_91 WLB_92
+  WLB_93 WLB_94 WLB_95 WLB_96 WLB_97 WLB_98 WLB_99 WLB_100 WLB_101 WLB_102
+  WLB_103 WLB_104 WLB_105 WLB_106 WLB_107 WLB_108 WLB_109 WLB_110 WLB_111
+  WLB_112 WLB_113 WLB_114 WLB_115 WLB_116 WLB_117 WLB_118 WLB_119 WLB_120
+  WLB_121 WLB_122 WLB_123 WLB_124 WLB_125 WLB_126 YP0 YP0_0 YP1 YP1_0 YP2
+  YP2_0 YP3 YP3_0 VSS VDD
** rf2p_512x64_4_50BCOL_M_UP: 4346 flat devices **
XI0_0 BLA BLA_ BLA_0 BLA_1 BLA_2 BLA__0 BLA__1 BLA__2 BLB BLB_ BLB_0 BLB_1
+  BLB_2 BLB__0 BLB__1 BLB__2 D GTP GTP_0 WEI YP0 YP1 YP2 YP3 VSS VDD
+  rf2p_512x64_4_50WR_MUX_UP_M
XI0_1 BLA_ BLA BLB_ BLB WLA WLA0 WLA1 WLA_0 WLA_1 WLA_2 WLA_3 WLA_4 WLA_5
+  WLA_6 WLA_7 WLA_8 WLA_9 WLA_10 WLA_11 WLA_12 WLA_13 WLA_14 WLA_15 WLA_16
+  WLA_17 WLA_18 WLA_19 WLA_20 WLA_21 WLA_22 WLA_23 WLA_24 WLA_25 WLA_26
+  WLA_27 WLA_28 WLA_29 WLA_30 WLA_31 WLA_32 WLA_33 WLA_34 WLA_35 WLA_36
+  WLA_37 WLA_38 WLA_39 WLA_40 WLA_41 WLA_42 WLA_43 WLA_44 WLA_45 WLA_46
+  WLA_47 WLA_48 WLA_49 WLA_50 WLA_51 WLA_52 WLA_53 WLA_54 WLA_55 WLA_56
+  WLA_57 WLA_58 WLA_59 WLA_60 WLA_61 WLA_62 WLA_63 WLA_64 WLA_65 WLA_66
+  WLA_67 WLA_68 WLA_69 WLA_70 WLA_71 WLA_72 WLA_73 WLA_74 WLA_75 WLA_76
+  WLA_77 WLA_78 WLA_79 WLA_80 WLA_81 WLA_82 WLA_83 WLA_84 WLA_85 WLA_86
+  WLA_87 WLA_88 WLA_89 WLA_90 WLA_91 WLA_92 WLA_93 WLA_94 WLA_95 WLA_96
+  WLA_97 WLA_98 WLA_99 WLA_100 WLA_101 WLA_102 WLA_103 WLA_104 WLA_105
+  WLA_106 WLA_107 WLA_108 WLA_109 WLA_110 WLA_111 WLA_112 WLA_113 WLA_114
+  WLA_115 WLA_116 WLA_117 WLA_118 WLA_119 WLA_120 WLA_121 WLA_122 WLA_123
+  WLA_124 WLA_125 WLA_126 WLB WLB0 WLB1 WLB_0 WLB_1 WLB_2 WLB_3 WLB_4 WLB_5
+  WLB_6 WLB_7 WLB_8 WLB_9 WLB_10 WLB_11 WLB_12 WLB_13 WLB_14 WLB_15 WLB_16
+  WLB_17 WLB_18 WLB_19 WLB_20 WLB_21 WLB_22 WLB_23 WLB_24 WLB_25 WLB_26
+  WLB_27 WLB_28 WLB_29 WLB_30 WLB_31 WLB_32 WLB_33 WLB_34 WLB_35 WLB_36
+  WLB_37 WLB_38 WLB_39 WLB_40 WLB_41 WLB_42 WLB_43 WLB_44 WLB_45 WLB_46
+  WLB_47 WLB_48 WLB_49 WLB_50 WLB_51 WLB_52 WLB_53 WLB_54 WLB_55 WLB_56
+  WLB_57 WLB_58 WLB_59 WLB_60 WLB_61 WLB_62 WLB_63 WLB_64 WLB_65 WLB_66
+  WLB_67 WLB_68 WLB_69 WLB_70 WLB_71 WLB_72 WLB_73 WLB_74 WLB_75 WLB_76
+  WLB_77 WLB_78 WLB_79 WLB_80 WLB_81 WLB_82 WLB_83 WLB_84 WLB_85 WLB_86
+  WLB_87 WLB_88 WLB_89 WLB_90 WLB_91 WLB_92 WLB_93 WLB_94 WLB_95 WLB_96
+  WLB_97 WLB_98 WLB_99 WLB_100 WLB_101 WLB_102 WLB_103 WLB_104 WLB_105
+  WLB_106 WLB_107 WLB_108 WLB_109 WLB_110 WLB_111 WLB_112 WLB_113 WLB_114
+  WLB_115 WLB_116 WLB_117 WLB_118 WLB_119 WLB_120 WLB_121 WLB_122 WLB_123
+  WLB_124 WLB_125 WLB_126 VSS VDD rf2p_512x64_4_50CC_COL_HCCMWG
XI0_2 BLA_ BLA BLA__0 BLA__1 BLA__2 BLA_0 BLA_1 BLA_2 BLB_ BLB BLB__0 BLB__1
+  BLB__2 BLB_0 BLB_1 BLB_2 GTP_1 GTPSA Q YP0_0 YP1_0 YP2_0 YP3_0 VSS VDD
+  rf2p_512x64_4_50RD_MUX_UP
XI1_1 BLA__0 BLA_0 BLB__0 BLB_0 WLA WLA0 WLA1 WLA_0 WLA_1 WLA_2 WLA_3 WLA_4
+  WLA_5 WLA_6 WLA_7 WLA_8 WLA_9 WLA_10 WLA_11 WLA_12 WLA_13 WLA_14 WLA_15
+  WLA_16 WLA_17 WLA_18 WLA_19 WLA_20 WLA_21 WLA_22 WLA_23 WLA_24 WLA_25
+  WLA_26 WLA_27 WLA_28 WLA_29 WLA_30 WLA_31 WLA_32 WLA_33 WLA_34 WLA_35
+  WLA_36 WLA_37 WLA_38 WLA_39 WLA_40 WLA_41 WLA_42 WLA_43 WLA_44 WLA_45
+  WLA_46 WLA_47 WLA_48 WLA_49 WLA_50 WLA_51 WLA_52 WLA_53 WLA_54 WLA_55
+  WLA_56 WLA_57 WLA_58 WLA_59 WLA_60 WLA_61 WLA_62 WLA_63 WLA_64 WLA_65
+  WLA_66 WLA_67 WLA_68 WLA_69 WLA_70 WLA_71 WLA_72 WLA_73 WLA_74 WLA_75
+  WLA_76 WLA_77 WLA_78 WLA_79 WLA_80 WLA_81 WLA_82 WLA_83 WLA_84 WLA_85
+  WLA_86 WLA_87 WLA_88 WLA_89 WLA_90 WLA_91 WLA_92 WLA_93 WLA_94 WLA_95
+  WLA_96 WLA_97 WLA_98 WLA_99 WLA_100 WLA_101 WLA_102 WLA_103 WLA_104 WLA_105
+  WLA_106 WLA_107 WLA_108 WLA_109 WLA_110 WLA_111 WLA_112 WLA_113 WLA_114
+  WLA_115 WLA_116 WLA_117 WLA_118 WLA_119 WLA_120 WLA_121 WLA_122 WLA_123
+  WLA_124 WLA_125 WLA_126 WLB WLB0 WLB1 WLB_0 WLB_1 WLB_2 WLB_3 WLB_4 WLB_5
+  WLB_6 WLB_7 WLB_8 WLB_9 WLB_10 WLB_11 WLB_12 WLB_13 WLB_14 WLB_15 WLB_16
+  WLB_17 WLB_18 WLB_19 WLB_20 WLB_21 WLB_22 WLB_23 WLB_24 WLB_25 WLB_26
+  WLB_27 WLB_28 WLB_29 WLB_30 WLB_31 WLB_32 WLB_33 WLB_34 WLB_35 WLB_36
+  WLB_37 WLB_38 WLB_39 WLB_40 WLB_41 WLB_42 WLB_43 WLB_44 WLB_45 WLB_46
+  WLB_47 WLB_48 WLB_49 WLB_50 WLB_51 WLB_52 WLB_53 WLB_54 WLB_55 WLB_56
+  WLB_57 WLB_58 WLB_59 WLB_60 WLB_61 WLB_62 WLB_63 WLB_64 WLB_65 WLB_66
+  WLB_67 WLB_68 WLB_69 WLB_70 WLB_71 WLB_72 WLB_73 WLB_74 WLB_75 WLB_76
+  WLB_77 WLB_78 WLB_79 WLB_80 WLB_81 WLB_82 WLB_83 WLB_84 WLB_85 WLB_86
+  WLB_87 WLB_88 WLB_89 WLB_90 WLB_91 WLB_92 WLB_93 WLB_94 WLB_95 WLB_96
+  WLB_97 WLB_98 WLB_99 WLB_100 WLB_101 WLB_102 WLB_103 WLB_104 WLB_105
+  WLB_106 WLB_107 WLB_108 WLB_109 WLB_110 WLB_111 WLB_112 WLB_113 WLB_114
+  WLB_115 WLB_116 WLB_117 WLB_118 WLB_119 WLB_120 WLB_121 WLB_122 WLB_123
+  WLB_124 WLB_125 WLB_126 VSS VDD rf2p_512x64_4_50CC_COL_HCCMWG
XI2_1 BLA__1 BLA_1 BLB__1 BLB_1 WLA WLA0 WLA1 WLA_0 WLA_1 WLA_2 WLA_3 WLA_4
+  WLA_5 WLA_6 WLA_7 WLA_8 WLA_9 WLA_10 WLA_11 WLA_12 WLA_13 WLA_14 WLA_15
+  WLA_16 WLA_17 WLA_18 WLA_19 WLA_20 WLA_21 WLA_22 WLA_23 WLA_24 WLA_25
+  WLA_26 WLA_27 WLA_28 WLA_29 WLA_30 WLA_31 WLA_32 WLA_33 WLA_34 WLA_35
+  WLA_36 WLA_37 WLA_38 WLA_39 WLA_40 WLA_41 WLA_42 WLA_43 WLA_44 WLA_45
+  WLA_46 WLA_47 WLA_48 WLA_49 WLA_50 WLA_51 WLA_52 WLA_53 WLA_54 WLA_55
+  WLA_56 WLA_57 WLA_58 WLA_59 WLA_60 WLA_61 WLA_62 WLA_63 WLA_64 WLA_65
+  WLA_66 WLA_67 WLA_68 WLA_69 WLA_70 WLA_71 WLA_72 WLA_73 WLA_74 WLA_75
+  WLA_76 WLA_77 WLA_78 WLA_79 WLA_80 WLA_81 WLA_82 WLA_83 WLA_84 WLA_85
+  WLA_86 WLA_87 WLA_88 WLA_89 WLA_90 WLA_91 WLA_92 WLA_93 WLA_94 WLA_95
+  WLA_96 WLA_97 WLA_98 WLA_99 WLA_100 WLA_101 WLA_102 WLA_103 WLA_104 WLA_105
+  WLA_106 WLA_107 WLA_108 WLA_109 WLA_110 WLA_111 WLA_112 WLA_113 WLA_114
+  WLA_115 WLA_116 WLA_117 WLA_118 WLA_119 WLA_120 WLA_121 WLA_122 WLA_123
+  WLA_124 WLA_125 WLA_126 WLB WLB0 WLB1 WLB_0 WLB_1 WLB_2 WLB_3 WLB_4 WLB_5
+  WLB_6 WLB_7 WLB_8 WLB_9 WLB_10 WLB_11 WLB_12 WLB_13 WLB_14 WLB_15 WLB_16
+  WLB_17 WLB_18 WLB_19 WLB_20 WLB_21 WLB_22 WLB_23 WLB_24 WLB_25 WLB_26
+  WLB_27 WLB_28 WLB_29 WLB_30 WLB_31 WLB_32 WLB_33 WLB_34 WLB_35 WLB_36
+  WLB_37 WLB_38 WLB_39 WLB_40 WLB_41 WLB_42 WLB_43 WLB_44 WLB_45 WLB_46
+  WLB_47 WLB_48 WLB_49 WLB_50 WLB_51 WLB_52 WLB_53 WLB_54 WLB_55 WLB_56
+  WLB_57 WLB_58 WLB_59 WLB_60 WLB_61 WLB_62 WLB_63 WLB_64 WLB_65 WLB_66
+  WLB_67 WLB_68 WLB_69 WLB_70 WLB_71 WLB_72 WLB_73 WLB_74 WLB_75 WLB_76
+  WLB_77 WLB_78 WLB_79 WLB_80 WLB_81 WLB_82 WLB_83 WLB_84 WLB_85 WLB_86
+  WLB_87 WLB_88 WLB_89 WLB_90 WLB_91 WLB_92 WLB_93 WLB_94 WLB_95 WLB_96
+  WLB_97 WLB_98 WLB_99 WLB_100 WLB_101 WLB_102 WLB_103 WLB_104 WLB_105
+  WLB_106 WLB_107 WLB_108 WLB_109 WLB_110 WLB_111 WLB_112 WLB_113 WLB_114
+  WLB_115 WLB_116 WLB_117 WLB_118 WLB_119 WLB_120 WLB_121 WLB_122 WLB_123
+  WLB_124 WLB_125 WLB_126 VSS VDD rf2p_512x64_4_50CC_COL_HCCMWG
XI3_1 BLA__2 BLA_2 BLB__2 BLB_2 WLA WLA0 WLA1 WLA_0 WLA_1 WLA_2 WLA_3 WLA_4
+  WLA_5 WLA_6 WLA_7 WLA_8 WLA_9 WLA_10 WLA_11 WLA_12 WLA_13 WLA_14 WLA_15
+  WLA_16 WLA_17 WLA_18 WLA_19 WLA_20 WLA_21 WLA_22 WLA_23 WLA_24 WLA_25
+  WLA_26 WLA_27 WLA_28 WLA_29 WLA_30 WLA_31 WLA_32 WLA_33 WLA_34 WLA_35
+  WLA_36 WLA_37 WLA_38 WLA_39 WLA_40 WLA_41 WLA_42 WLA_43 WLA_44 WLA_45
+  WLA_46 WLA_47 WLA_48 WLA_49 WLA_50 WLA_51 WLA_52 WLA_53 WLA_54 WLA_55
+  WLA_56 WLA_57 WLA_58 WLA_59 WLA_60 WLA_61 WLA_62 WLA_63 WLA_64 WLA_65
+  WLA_66 WLA_67 WLA_68 WLA_69 WLA_70 WLA_71 WLA_72 WLA_73 WLA_74 WLA_75
+  WLA_76 WLA_77 WLA_78 WLA_79 WLA_80 WLA_81 WLA_82 WLA_83 WLA_84 WLA_85
+  WLA_86 WLA_87 WLA_88 WLA_89 WLA_90 WLA_91 WLA_92 WLA_93 WLA_94 WLA_95
+  WLA_96 WLA_97 WLA_98 WLA_99 WLA_100 WLA_101 WLA_102 WLA_103 WLA_104 WLA_105
+  WLA_106 WLA_107 WLA_108 WLA_109 WLA_110 WLA_111 WLA_112 WLA_113 WLA_114
+  WLA_115 WLA_116 WLA_117 WLA_118 WLA_119 WLA_120 WLA_121 WLA_122 WLA_123
+  WLA_124 WLA_125 WLA_126 WLB WLB0 WLB1 WLB_0 WLB_1 WLB_2 WLB_3 WLB_4 WLB_5
+  WLB_6 WLB_7 WLB_8 WLB_9 WLB_10 WLB_11 WLB_12 WLB_13 WLB_14 WLB_15 WLB_16
+  WLB_17 WLB_18 WLB_19 WLB_20 WLB_21 WLB_22 WLB_23 WLB_24 WLB_25 WLB_26
+  WLB_27 WLB_28 WLB_29 WLB_30 WLB_31 WLB_32 WLB_33 WLB_34 WLB_35 WLB_36
+  WLB_37 WLB_38 WLB_39 WLB_40 WLB_41 WLB_42 WLB_43 WLB_44 WLB_45 WLB_46
+  WLB_47 WLB_48 WLB_49 WLB_50 WLB_51 WLB_52 WLB_53 WLB_54 WLB_55 WLB_56
+  WLB_57 WLB_58 WLB_59 WLB_60 WLB_61 WLB_62 WLB_63 WLB_64 WLB_65 WLB_66
+  WLB_67 WLB_68 WLB_69 WLB_70 WLB_71 WLB_72 WLB_73 WLB_74 WLB_75 WLB_76
+  WLB_77 WLB_78 WLB_79 WLB_80 WLB_81 WLB_82 WLB_83 WLB_84 WLB_85 WLB_86
+  WLB_87 WLB_88 WLB_89 WLB_90 WLB_91 WLB_92 WLB_93 WLB_94 WLB_95 WLB_96
+  WLB_97 WLB_98 WLB_99 WLB_100 WLB_101 WLB_102 WLB_103 WLB_104 WLB_105
+  WLB_106 WLB_107 WLB_108 WLB_109 WLB_110 WLB_111 WLB_112 WLB_113 WLB_114
+  WLB_115 WLB_116 WLB_117 WLB_118 WLB_119 WLB_120 WLB_121 WLB_122 WLB_123
+  WLB_124 WLB_125 WLB_126 VSS VDD rf2p_512x64_4_50CC_COL_HCCMWG
.ENDS rf2p_512x64_4_50BCOL_M_UP
****
.SUBCKT rf2p_512x64_4_50CDW_MUX_DN BLA BLA_ BLA_0 BLA_1 BLA_2 BLA__0 BLA__1
+  BLA__2 BLB BLB_ BLB_0 BLB_1 BLB_2 BLB__0 BLB__1 BLB__2 DWWR DWWR_0 DWWR_1
+  DWWR_2 GTP YP0 YP1 YP2 YP3 VSS VDD
** rf2p_512x64_4_50CDW_MUX_DN: 56 flat devices **
XI1 BLA BLA_ BLB BLB_ DWWR DWWR DWWR_0 GTP YP3 YP0 YP1 YP2 YP3 VSS VDD
+  rf2p_512x64_4_50CDWL
XI2 BLA_0 BLA__0 BLB_0 BLB__0 DWWR DWWR_0 DWWR_0 GTP YP2 YP0 YP1 YP2 YP3 VSS
+  VDD rf2p_512x64_4_50CDWR
XI3 BLA_1 BLA__1 BLB_1 BLB__1 DWWR DWWR_1 DWWR_0 GTP YP1 YP0 YP1 YP2 YP3 VSS
+  VDD rf2p_512x64_4_50CDWL
XI4 BLA_2 BLA__2 BLB_2 BLB__2 DWWR DWWR_2 DWWR_0 GTP YP0 YP0 YP1 YP2 YP3 VSS
+  VDD rf2p_512x64_4_50CDWR
.ENDS rf2p_512x64_4_50CDW_MUX_DN
****
.SUBCKT rf2p_512x64_4_50WR_MUX_DN_M BLA BLA_ BLA_0 BLA_1 BLA_2 BLA__0 BLA__1
+  BLA__2 BLB BLB_ BLB_0 BLB_1 BLB_2 BLB__0 BLB__1 BLB__2 D GTP GTP_0 WEI YP0
+  YP1 YP2 YP3 VSS VDD
** rf2p_512x64_4_50WR_MUX_DN_M: 97 flat devices **
XI0_0 D DWA DWA_ GTP WEI VSS VDD rf2p_512x64_4_50WR